<routes>
        <vType id="typeWE" accel="0.8" decel="4.5" sigma="0.5" length="5" minGap="2.5" maxSpeed="15.00" guiShape="passenger"/>
        <vType id="typeNS" accel="0.8" decel="4.5" sigma="0.5" length="5" minGap="2.5" maxSpeed="15.00" guiShape="passenger"/>

        <route id="route_0" edges="1o 3i" />
        <route id="route_1" edges="3o 1i" />
        <route id="route_2" edges="2o 4i" />
        <route id="route_3" edges="4o 2i" />
    <vehicle id="left_0" type="typeWE" route="route_1" depart="0" color="0,1,0"/>
    <vehicle id="up_1" type="typeNS" route="route_3" depart="1" color="1,0,0"/>
    <vehicle id="left_2" type="typeWE" route="route_1" depart="2" color="0,1,0"/>
    <vehicle id="right_3" type="typeWE" route="route_0" depart="3" color="0,1,0"/>
    <vehicle id="up_4" type="typeNS" route="route_3" depart="4" color="1,0,0"/>
    <vehicle id="down_5" type="typeNS" route="route_2" depart="6" color="1,0,0"/>
    <vehicle id="up_6" type="typeNS" route="route_3" depart="6" color="1,0,0"/>
    <vehicle id="left_7" type="typeWE" route="route_1" depart="10" color="0,1,0"/>
    <vehicle id="right_8" type="typeWE" route="route_0" depart="11" color="0,1,0"/>
    <vehicle id="up_9" type="typeNS" route="route_3" depart="16" color="1,0,0"/>
    <vehicle id="right_10" type="typeWE" route="route_0" depart="22" color="0,1,0"/>
    <vehicle id="left_11" type="typeWE" route="route_1" depart="22" color="0,1,0"/>
    <vehicle id="down_12" type="typeNS" route="route_2" depart="23" color="1,0,0"/>
    <vehicle id="right_13" type="typeWE" route="route_0" depart="25" color="0,1,0"/>
    <vehicle id="right_14" type="typeWE" route="route_0" depart="31" color="0,1,0"/>
    <vehicle id="down_15" type="typeNS" route="route_2" depart="31" color="1,0,0"/>
    <vehicle id="up_16" type="typeNS" route="route_3" depart="32" color="1,0,0"/>
    <vehicle id="down_17" type="typeNS" route="route_2" depart="33" color="1,0,0"/>
    <vehicle id="right_18" type="typeWE" route="route_0" depart="34" color="0,1,0"/>
    <vehicle id="right_19" type="typeWE" route="route_0" depart="40" color="0,1,0"/>
    <vehicle id="left_20" type="typeWE" route="route_1" depart="41" color="0,1,0"/>
    <vehicle id="right_21" type="typeWE" route="route_0" depart="44" color="0,1,0"/>
    <vehicle id="up_22" type="typeNS" route="route_3" depart="45" color="1,0,0"/>
    <vehicle id="left_23" type="typeWE" route="route_1" depart="49" color="0,1,0"/>
    <vehicle id="up_24" type="typeNS" route="route_3" depart="51" color="1,0,0"/>
    <vehicle id="right_25" type="typeWE" route="route_0" depart="56" color="0,1,0"/>
    <vehicle id="down_26" type="typeNS" route="route_2" depart="57" color="1,0,0"/>
    <vehicle id="right_27" type="typeWE" route="route_0" depart="63" color="0,1,0"/>
    <vehicle id="right_28" type="typeWE" route="route_0" depart="64" color="0,1,0"/>
    <vehicle id="left_29" type="typeWE" route="route_1" depart="67" color="0,1,0"/>
    <vehicle id="up_30" type="typeNS" route="route_3" depart="71" color="1,0,0"/>
    <vehicle id="down_31" type="typeNS" route="route_2" depart="72" color="1,0,0"/>
    <vehicle id="left_32" type="typeWE" route="route_1" depart="74" color="0,1,0"/>
    <vehicle id="down_33" type="typeNS" route="route_2" depart="74" color="1,0,0"/>
    <vehicle id="right_34" type="typeWE" route="route_0" depart="81" color="0,1,0"/>
    <vehicle id="down_35" type="typeNS" route="route_2" depart="85" color="1,0,0"/>
    <vehicle id="right_36" type="typeWE" route="route_0" depart="92" color="0,1,0"/>
    <vehicle id="up_37" type="typeNS" route="route_3" depart="93" color="1,0,0"/>
    <vehicle id="down_38" type="typeNS" route="route_2" depart="98" color="1,0,0"/>
    <vehicle id="down_39" type="typeNS" route="route_2" depart="101" color="1,0,0"/>
    <vehicle id="up_40" type="typeNS" route="route_3" depart="103" color="1,0,0"/>
    <vehicle id="up_41" type="typeNS" route="route_3" depart="104" color="1,0,0"/>
    <vehicle id="up_42" type="typeNS" route="route_3" depart="106" color="1,0,0"/>
    <vehicle id="up_43" type="typeNS" route="route_3" depart="108" color="1,0,0"/>
    <vehicle id="right_44" type="typeWE" route="route_0" depart="115" color="0,1,0"/>
    <vehicle id="left_45" type="typeWE" route="route_1" depart="117" color="0,1,0"/>
    <vehicle id="left_46" type="typeWE" route="route_1" depart="120" color="0,1,0"/>
    <vehicle id="left_47" type="typeWE" route="route_1" depart="123" color="0,1,0"/>
    <vehicle id="left_48" type="typeWE" route="route_1" depart="125" color="0,1,0"/>
    <vehicle id="right_49" type="typeWE" route="route_0" depart="126" color="0,1,0"/>
    <vehicle id="right_50" type="typeWE" route="route_0" depart="127" color="0,1,0"/>
    <vehicle id="left_51" type="typeWE" route="route_1" depart="129" color="0,1,0"/>
    <vehicle id="down_52" type="typeNS" route="route_2" depart="129" color="1,0,0"/>
    <vehicle id="right_53" type="typeWE" route="route_0" depart="132" color="0,1,0"/>
    <vehicle id="up_54" type="typeNS" route="route_3" depart="135" color="1,0,0"/>
    <vehicle id="left_55" type="typeWE" route="route_1" depart="137" color="0,1,0"/>
    <vehicle id="up_56" type="typeNS" route="route_3" depart="145" color="1,0,0"/>
    <vehicle id="left_57" type="typeWE" route="route_1" depart="147" color="0,1,0"/>
    <vehicle id="down_58" type="typeNS" route="route_2" depart="149" color="1,0,0"/>
    <vehicle id="right_59" type="typeWE" route="route_0" depart="150" color="0,1,0"/>
    <vehicle id="right_60" type="typeWE" route="route_0" depart="152" color="0,1,0"/>
    <vehicle id="left_61" type="typeWE" route="route_1" depart="159" color="0,1,0"/>
    <vehicle id="up_62" type="typeNS" route="route_3" depart="162" color="1,0,0"/>
    <vehicle id="right_63" type="typeWE" route="route_0" depart="164" color="0,1,0"/>
    <vehicle id="down_64" type="typeNS" route="route_2" depart="164" color="1,0,0"/>
    <vehicle id="up_65" type="typeNS" route="route_3" depart="170" color="1,0,0"/>
    <vehicle id="right_66" type="typeWE" route="route_0" depart="171" color="0,1,0"/>
    <vehicle id="up_67" type="typeNS" route="route_3" depart="175" color="1,0,0"/>
    <vehicle id="up_68" type="typeNS" route="route_3" depart="178" color="1,0,0"/>
    <vehicle id="right_69" type="typeWE" route="route_0" depart="179" color="0,1,0"/>
    <vehicle id="right_70" type="typeWE" route="route_0" depart="180" color="0,1,0"/>
    <vehicle id="right_71" type="typeWE" route="route_0" depart="182" color="0,1,0"/>
    <vehicle id="left_72" type="typeWE" route="route_1" depart="184" color="0,1,0"/>
    <vehicle id="up_73" type="typeNS" route="route_3" depart="193" color="1,0,0"/>
    <vehicle id="left_74" type="typeWE" route="route_1" depart="204" color="0,1,0"/>
    <vehicle id="down_75" type="typeNS" route="route_2" depart="206" color="1,0,0"/>
    <vehicle id="up_76" type="typeNS" route="route_3" depart="212" color="1,0,0"/>
    <vehicle id="right_77" type="typeWE" route="route_0" depart="213" color="0,1,0"/>
    <vehicle id="down_78" type="typeNS" route="route_2" depart="214" color="1,0,0"/>
    <vehicle id="right_79" type="typeWE" route="route_0" depart="216" color="0,1,0"/>
    <vehicle id="left_80" type="typeWE" route="route_1" depart="218" color="0,1,0"/>
    <vehicle id="down_81" type="typeNS" route="route_2" depart="220" color="1,0,0"/>
    <vehicle id="right_82" type="typeWE" route="route_0" depart="227" color="0,1,0"/>
    <vehicle id="left_83" type="typeWE" route="route_1" depart="232" color="0,1,0"/>
    <vehicle id="right_84" type="typeWE" route="route_0" depart="239" color="0,1,0"/>
    <vehicle id="down_85" type="typeNS" route="route_2" depart="241" color="1,0,0"/>
    <vehicle id="up_86" type="typeNS" route="route_3" depart="242" color="1,0,0"/>
    <vehicle id="right_87" type="typeWE" route="route_0" depart="245" color="0,1,0"/>
    <vehicle id="up_88" type="typeNS" route="route_3" depart="247" color="1,0,0"/>
    <vehicle id="up_89" type="typeNS" route="route_3" depart="248" color="1,0,0"/>
    <vehicle id="right_90" type="typeWE" route="route_0" depart="250" color="0,1,0"/>
    <vehicle id="left_91" type="typeWE" route="route_1" depart="253" color="0,1,0"/>
    <vehicle id="down_92" type="typeNS" route="route_2" depart="254" color="1,0,0"/>
    <vehicle id="down_93" type="typeNS" route="route_2" depart="256" color="1,0,0"/>
    <vehicle id="left_94" type="typeWE" route="route_1" depart="258" color="0,1,0"/>
    <vehicle id="down_95" type="typeNS" route="route_2" depart="258" color="1,0,0"/>
    <vehicle id="up_96" type="typeNS" route="route_3" depart="259" color="1,0,0"/>
    <vehicle id="left_97" type="typeWE" route="route_1" depart="262" color="0,1,0"/>
    <vehicle id="up_98" type="typeNS" route="route_3" depart="263" color="1,0,0"/>
    <vehicle id="left_99" type="typeWE" route="route_1" depart="265" color="0,1,0"/>
    <vehicle id="down_100" type="typeNS" route="route_2" depart="265" color="1,0,0"/>
    <vehicle id="right_101" type="typeWE" route="route_0" depart="266" color="0,1,0"/>
    <vehicle id="left_102" type="typeWE" route="route_1" depart="268" color="0,1,0"/>
    <vehicle id="left_103" type="typeWE" route="route_1" depart="271" color="0,1,0"/>
    <vehicle id="up_104" type="typeNS" route="route_3" depart="272" color="1,0,0"/>
    <vehicle id="left_105" type="typeWE" route="route_1" depart="273" color="0,1,0"/>
    <vehicle id="down_106" type="typeNS" route="route_2" depart="273" color="1,0,0"/>
    <vehicle id="left_107" type="typeWE" route="route_1" depart="281" color="0,1,0"/>
    <vehicle id="left_108" type="typeWE" route="route_1" depart="283" color="0,1,0"/>
    <vehicle id="up_109" type="typeNS" route="route_3" depart="284" color="1,0,0"/>
    <vehicle id="right_110" type="typeWE" route="route_0" depart="287" color="0,1,0"/>
    <vehicle id="left_111" type="typeWE" route="route_1" depart="287" color="0,1,0"/>
    <vehicle id="left_112" type="typeWE" route="route_1" depart="291" color="0,1,0"/>
    <vehicle id="right_113" type="typeWE" route="route_0" depart="292" color="0,1,0"/>
    <vehicle id="down_114" type="typeNS" route="route_2" depart="293" color="1,0,0"/>
    <vehicle id="down_115" type="typeNS" route="route_2" depart="295" color="1,0,0"/>
    <vehicle id="right_116" type="typeWE" route="route_0" depart="296" color="0,1,0"/>
    <vehicle id="left_117" type="typeWE" route="route_1" depart="296" color="0,1,0"/>
    <vehicle id="left_118" type="typeWE" route="route_1" depart="298" color="0,1,0"/>
    <vehicle id="up_119" type="typeNS" route="route_3" depart="299" color="1,0,0"/>
    <vehicle id="right_120" type="typeWE" route="route_0" depart="309" color="0,1,0"/>
    <vehicle id="right_121" type="typeWE" route="route_0" depart="310" color="0,1,0"/>
    <vehicle id="right_122" type="typeWE" route="route_0" depart="311" color="0,1,0"/>
    <vehicle id="down_123" type="typeNS" route="route_2" depart="311" color="1,0,0"/>
    <vehicle id="left_124" type="typeWE" route="route_1" depart="315" color="0,1,0"/>
    <vehicle id="right_125" type="typeWE" route="route_0" depart="320" color="0,1,0"/>
    <vehicle id="left_126" type="typeWE" route="route_1" depart="320" color="0,1,0"/>
    <vehicle id="right_127" type="typeWE" route="route_0" depart="329" color="0,1,0"/>
    <vehicle id="down_128" type="typeNS" route="route_2" depart="330" color="1,0,0"/>
    <vehicle id="left_129" type="typeWE" route="route_1" depart="343" color="0,1,0"/>
    <vehicle id="down_130" type="typeNS" route="route_2" depart="343" color="1,0,0"/>
    <vehicle id="up_131" type="typeNS" route="route_3" depart="344" color="1,0,0"/>
    <vehicle id="up_132" type="typeNS" route="route_3" depart="347" color="1,0,0"/>
    <vehicle id="right_133" type="typeWE" route="route_0" depart="348" color="0,1,0"/>
    <vehicle id="left_134" type="typeWE" route="route_1" depart="350" color="0,1,0"/>
    <vehicle id="right_135" type="typeWE" route="route_0" depart="352" color="0,1,0"/>
    <vehicle id="left_136" type="typeWE" route="route_1" depart="354" color="0,1,0"/>
    <vehicle id="up_137" type="typeNS" route="route_3" depart="354" color="1,0,0"/>
    <vehicle id="left_138" type="typeWE" route="route_1" depart="357" color="0,1,0"/>
    <vehicle id="left_139" type="typeWE" route="route_1" depart="359" color="0,1,0"/>
    <vehicle id="down_140" type="typeNS" route="route_2" depart="361" color="1,0,0"/>
    <vehicle id="down_141" type="typeNS" route="route_2" depart="362" color="1,0,0"/>
    <vehicle id="right_142" type="typeWE" route="route_0" depart="363" color="0,1,0"/>
    <vehicle id="left_143" type="typeWE" route="route_1" depart="369" color="0,1,0"/>
    <vehicle id="down_144" type="typeNS" route="route_2" depart="370" color="1,0,0"/>
    <vehicle id="left_145" type="typeWE" route="route_1" depart="372" color="0,1,0"/>
    <vehicle id="right_146" type="typeWE" route="route_0" depart="374" color="0,1,0"/>
    <vehicle id="left_147" type="typeWE" route="route_1" depart="376" color="0,1,0"/>
    <vehicle id="down_148" type="typeNS" route="route_2" depart="376" color="1,0,0"/>
    <vehicle id="down_149" type="typeNS" route="route_2" depart="384" color="1,0,0"/>
    <vehicle id="up_150" type="typeNS" route="route_3" depart="385" color="1,0,0"/>
    <vehicle id="right_151" type="typeWE" route="route_0" depart="389" color="0,1,0"/>
    <vehicle id="down_152" type="typeNS" route="route_2" depart="390" color="1,0,0"/>
    <vehicle id="left_153" type="typeWE" route="route_1" depart="392" color="0,1,0"/>
    <vehicle id="down_154" type="typeNS" route="route_2" depart="395" color="1,0,0"/>
    <vehicle id="right_155" type="typeWE" route="route_0" depart="402" color="0,1,0"/>
    <vehicle id="left_156" type="typeWE" route="route_1" depart="402" color="0,1,0"/>
    <vehicle id="right_157" type="typeWE" route="route_0" depart="406" color="0,1,0"/>
    <vehicle id="left_158" type="typeWE" route="route_1" depart="406" color="0,1,0"/>
    <vehicle id="down_159" type="typeNS" route="route_2" depart="410" color="1,0,0"/>
    <vehicle id="left_160" type="typeWE" route="route_1" depart="414" color="0,1,0"/>
    <vehicle id="up_161" type="typeNS" route="route_3" depart="415" color="1,0,0"/>
    <vehicle id="up_162" type="typeNS" route="route_3" depart="419" color="1,0,0"/>
    <vehicle id="up_163" type="typeNS" route="route_3" depart="423" color="1,0,0"/>
    <vehicle id="left_164" type="typeWE" route="route_1" depart="430" color="0,1,0"/>
    <vehicle id="up_165" type="typeNS" route="route_3" depart="433" color="1,0,0"/>
    <vehicle id="down_166" type="typeNS" route="route_2" depart="434" color="1,0,0"/>
    <vehicle id="up_167" type="typeNS" route="route_3" depart="436" color="1,0,0"/>
    <vehicle id="down_168" type="typeNS" route="route_2" depart="450" color="1,0,0"/>
    <vehicle id="up_169" type="typeNS" route="route_3" depart="451" color="1,0,0"/>
    <vehicle id="up_170" type="typeNS" route="route_3" depart="454" color="1,0,0"/>
    <vehicle id="right_171" type="typeWE" route="route_0" depart="459" color="0,1,0"/>
    <vehicle id="down_172" type="typeNS" route="route_2" depart="465" color="1,0,0"/>
    <vehicle id="down_173" type="typeNS" route="route_2" depart="468" color="1,0,0"/>
    <vehicle id="left_174" type="typeWE" route="route_1" depart="469" color="0,1,0"/>
    <vehicle id="up_175" type="typeNS" route="route_3" depart="475" color="1,0,0"/>
    <vehicle id="down_176" type="typeNS" route="route_2" depart="476" color="1,0,0"/>
    <vehicle id="right_177" type="typeWE" route="route_0" depart="477" color="0,1,0"/>
    <vehicle id="down_178" type="typeNS" route="route_2" depart="479" color="1,0,0"/>
    <vehicle id="right_179" type="typeWE" route="route_0" depart="481" color="0,1,0"/>
    <vehicle id="right_180" type="typeWE" route="route_0" depart="483" color="0,1,0"/>
    <vehicle id="down_181" type="typeNS" route="route_2" depart="483" color="1,0,0"/>
    <vehicle id="left_182" type="typeWE" route="route_1" depart="484" color="0,1,0"/>
    <vehicle id="up_183" type="typeNS" route="route_3" depart="484" color="1,0,0"/>
    <vehicle id="left_184" type="typeWE" route="route_1" depart="490" color="0,1,0"/>
    <vehicle id="down_185" type="typeNS" route="route_2" depart="490" color="1,0,0"/>
    <vehicle id="down_186" type="typeNS" route="route_2" depart="494" color="1,0,0"/>
    <vehicle id="left_187" type="typeWE" route="route_1" depart="495" color="0,1,0"/>
    <vehicle id="right_188" type="typeWE" route="route_0" depart="496" color="0,1,0"/>
    <vehicle id="down_189" type="typeNS" route="route_2" depart="497" color="1,0,0"/>
</routes>
